Circuit: * D:\Baltic_Fusebox\Fusebox_Test\R2D-Timer_2.asc

Direct Newton iteration for .op point succeeded.

Date: Thu Apr 27 14:19:07 2023
Total elapsed time: 0.048 seconds.

tnom = 27
temp = 27
method = modified trap
totiter = 6141
traniter = 6119
tranpoints = 2843
accept = 2534
rejected = 309
matrix size = 7
fillins = 0
solver = Normal
Matrix Compiler1:      15 opcodes  0.1/[0.0]/0.1
Matrix Compiler2: 461 bytes object code size  0.0/0.1/[0.0]

